%nprocshared=64
%mem=128GB
%chk=TST_H2O_PBEPBE.chk
#p opt=(calcfc,qst3,maxcycle=200,cartesian) freq pbepbe/gen
geom=connectivity

HY_H2O_PBEPBE_PC2_OPT_FREQ

0 1
 O                  1.25598800    1.43009900   -0.00484600
 N                  0.31242300   -0.68232300   -0.00679800
 C                  0.16147100    0.65404000   -0.00080500
 C                 -1.10487600    1.27102300    0.00878600
 C                 -0.79360700   -1.44917700   -0.00630200
 C                 -2.22941400    0.46169000    0.01038100
 C                 -2.08228200   -0.93276300    0.00237600
 H                  2.06487700    0.83802800   -0.01692400
 H                 -1.16838500    2.35786800    0.01282000
 H                 -0.62180400   -2.52801800   -0.01442700
 H                 -3.22300100    0.91169100    0.01664700
 H                 -2.94438700   -1.59756300    0.00175200
 O                  3.04118200   -0.60164700   -0.08698000
 H                  3.49345200   -0.86160500    0.72985500
 H                  2.12718500   -1.00063600   -0.03414900

 1 3 1.5 8 1.0
 2 3 1.5 5 1.5
 3 4 1.5
 4 6 2.0 9 1.0
 5 7 1.5 10 1.0
 6 7 1.5 11 1.0
 7 12 1.0
 8
 9
 10
 11
 12
 13 14 1.0 15 1.0
 14
 15

PY_H2O_PBEPBE_PC2_OPT_FREQ

0 1
 O                  1.28726100    1.39894600    0.00253600
 N                  0.26285600   -0.66079600    0.00898100
 C                  0.22389100    0.74410600    0.00512600
 C                 -1.10777700    1.29530500    0.00258100
 C                 -0.83093000   -1.46446900    0.00509600
 C                 -2.21536900    0.48415100   -0.00099900
 C                 -2.09304300   -0.92945600   -0.00058700
 H                  2.64567100    0.27295900   -0.04962700
 H                 -1.18684000    2.38095400    0.00076800
 H                 -0.63582100   -2.53628100    0.00486400
 H                 -3.21012300    0.93352000   -0.00515700
 H                 -2.96438000   -1.57922800   -0.00524600
 O                  3.05261700   -0.63703700   -0.09175200
 H                  3.71126500   -0.66519300    0.61732600
 H                  1.22059000   -1.05426700    0.02063200

 1 3 2.0
 2 3 1.0 5 1.5 15 1.0
 3 4 1.5
 4 6 2.0 9 1.0
 5 7 2.0 10 1.0
 6 7 1.5 11 1.0
 7 12 1.0
 8 13 1.0
 9
 10
 11
 12
 13 14 1.0
 14
 15

TST_H2O_PBEPBE

0 1
 O                  1.28864581    1.44791204   -0.01463870
 N                  0.34508081   -0.66450996   -0.01659070
 C                  0.19412881    0.67185304   -0.01059770
 C                 -1.07221819    1.28883604   -0.00100670
 C                 -0.76094919   -1.43136396   -0.01609470
 C                 -2.19675619    0.47950304    0.00058830
 C                 -2.04962419   -0.91494996   -0.00741670
 H                  2.24786527    0.62086370   -0.02064857
 H                 -1.13572719    2.37568104    0.00302730
 H                 -0.58914619   -2.51020496   -0.02421970
 H                 -3.19034319    0.92950404    0.00685430
 H                 -2.91172919   -1.57974996   -0.00804070
 O                  2.60659792   -0.41791195   -0.06814634
 H                  3.05886792   -0.67786995    0.74868866
 H                  1.59987846   -0.85737728   -0.00995578

 1 3 1.5
 2 3 1.5 5 1.5
 3 4 1.5
 4 6 2.0 9 1.0
 5 7 1.5 10 1.0
 6 7 1.5 11 1.0
 7 12 1.0
 8 13 0.5
 9
 10
 11
 12
 13 14 1.0 15 0.5
 14
 15

@pc-2.gbs



