%nprocshared=64
%mem=128GB
%chk=TST_GAS_B3LYP.chk
#p opt=(calcfc,qst3,MaxCycle=200) freq B3LYP/gen 

HY_B3LYP_PC2_OPT_FREQ

0 1
 O                  0.00482200    2.25304000    0.00000000
 N                 -1.17552600    0.29477000    0.00000000
 C                  0.00000000    0.90100100    0.00000000
 C                  1.22395000    0.22660400    0.00000000
 C                 -1.18866400   -1.04239700    0.00000000
 C                  1.18993500   -1.15409600    0.00000000
 C                 -0.03928400   -1.81301800    0.00000000
 H                 -0.91938800    2.53407800    0.00000000
 H                  2.14882600    0.78355000    0.00000000
 H                 -2.16786900   -1.50574100    0.00000000
 H                  2.11369700   -1.71690400    0.00000000
 H                 -0.10078100   -2.89124400    0.00000000

PY_B3LYP_PC2_OPT_FREQ

0 1
 O                 -0.13087300    2.27825400    0.00000000
 N                 -1.13691900    0.23391000    0.00000000
 C                  0.00000000    1.06352700    0.00000000
 C                  1.24305000    0.32163500    0.00000000
 C                 -1.11915800   -1.12533300    0.00000000
 C                  1.26143100   -1.03771700    0.00000000
 C                  0.05951400   -1.79757800    0.00000000
 H                 -2.01536300    0.73053600    0.00000000
 H                  2.14989800    0.90744200    0.00000000
 H                 -2.08192400   -1.61511400    0.00000000
 H                  2.21087800   -1.55792900    0.00000000
 H                  0.07290700   -2.87553800    0.00000000

TST_GAS_B3LYP

0 1
 O                  0.19535851    2.62028267    0.00000000
 N                 -0.98498949    0.66201267    0.00000000
 C                  0.19053651    1.26824367    0.00000000
 C                  1.41448651    0.59384667    0.00000000
 C                 -0.99812749   -0.67515433    0.00000000
 C                  1.38047151   -0.78685333    0.00000000
 C                  0.15125251   -1.44577533    0.00000000
 H                 -1.10992451    2.16683533    0.00000000
 H                  2.33936251    1.15079267    0.00000000
 H                 -1.97733249   -1.13849833    0.00000000
 H                  2.30423351   -1.34966133    0.00000000
 H                  0.08975551   -2.52400133    0.00000000

@pc-2.gbs

