%nprocshared=64
%mem=128GB
%chk=TST_GAS_wB97.chk
#p opt=(calcfc,qst3,MaxCycle=200) freq  wB97/gen

HY_wB97_PC2_OPT_FREQ

0 1
 O                  0.00780200    2.24808300    0.00000000
 N                 -1.17524200    0.29876100    0.00000000
 C                  0.00000000    0.89781900    0.00000000
 C                  1.22425000    0.22426800    0.00000000
 C                 -1.18694800   -1.03846000    0.00000000
 C                  1.18771200   -1.15288600    0.00000000
 C                 -0.04283400   -1.81046300    0.00000000
 H                 -0.91411600    2.52765000    0.00000000
 H                  2.14921700    0.78532000    0.00000000
 H                 -2.16906600   -1.50159300    0.00000000
 H                  2.11298000   -1.71845300    0.00000000
 H                 -0.10782100   -2.89058500    0.00000000

PY_wB97_PC2_OPT_FREQ

0 1
 O                 -0.11662400    2.27324700    0.00000000
 N                 -1.13410200    0.24633700    0.00000000
 C                  0.00000000    1.05929100    0.00000000
 C                  1.24826200    0.31109200    0.00000000
 C                 -1.12222200   -1.11752700    0.00000000
 C                  1.25776400   -1.04027900    0.00000000
 C                  0.04284100   -1.79771300    0.00000000
 H                 -2.00835500    0.74809300    0.00000000
 H                  2.15813900    0.89663100    0.00000000
 H                 -2.09244500   -1.59863000    0.00000000
 H                  2.20605500   -1.56763300    0.00000000
 H                  0.04844500   -2.87798000    0.00000000

TST_GAS_wB97

0 1
 O                  0.21042321    2.61071467    0.00000000
 N                 -0.97262079    0.66139267    0.00000000
 C                  0.15739437    1.29145872    0.00000000
 C                  1.42687121    0.58689967    0.00000000
 C                 -0.98432679   -0.67582833    0.00000000
 C                  1.39033321   -0.79025433    0.00000000
 C                  0.15978721   -1.44783133    0.00000000
 H                 -1.07151037    2.13401028    0.00000000
 H                  2.35183821    1.14795167    0.00000000
 H                 -1.96644479   -1.13896133    0.00000000
 H                  2.31560121   -1.35582133    0.00000000
 H                  0.09480021   -2.52795333    0.00000000

@pc-2.gbs

