%nprocshared=64
%mem=128GB
%chk=HY_H2O_M062X_PC2_OPT_FREQ.chk
#p opt freq M062X/gen

HY_H2O_M062X_PC2_OPT_FREQ

0 1
 O                  1.21600300    1.44855300   -0.00261700
 N                  0.30594200   -0.66619400   -0.00546500
 C                  0.13701400    0.65515500   -0.00009400
 C                 -1.12975700    1.25518300    0.00825700
 C                 -0.78317500   -1.44649800   -0.00563400
 C                 -2.23812400    0.43548500    0.00910800
 C                 -2.07198600   -0.95099800    0.00173200
 H                  2.03021600    0.90022700   -0.01529500
 H                 -1.20630800    2.33209900    0.01207700
 H                 -0.59905900   -2.51382000   -0.01294400
 H                 -3.22982300    0.86767800    0.01455800
 H                 -2.91795200   -1.62195200    0.00073500
 O                  3.09571100   -0.58721700   -0.08502500
 H                  3.59396600   -0.87925100    0.68253300
 H                  2.20981900   -1.00227800   -0.02248400

@pc-2.gbs

