%nprocshared=64
%mem=128GB
%chk=TST_GAS_BP86.chk
#p opt=(calcfc,qst3,MaxCycle=200) freq BP86/gen 

HY_BP86_PC2_OPT_FREQ

0 1
 O                 -0.00270500    2.26603900    0.00000000
 N                 -1.18613000    0.29546000    0.00000000
 C                  0.00000000    0.90592400    0.00000000
 C                  1.23276000    0.23141500    0.00000000
 C                 -1.19252000   -1.05026000    0.00000000
 C                  1.20066900   -1.15786700    0.00000000
 C                 -0.03360700   -1.82268500    0.00000000
 H                 -0.94580000    2.52377900    0.00000000
 H                  2.16515400    0.79401500    0.00000000
 H                 -2.17944000   -1.51988500    0.00000000
 H                  2.13365400   -1.72325300    0.00000000
 H                 -0.09282900   -2.91035000    0.00000000

PY_BP86_PC2_OPT_FREQ

0 1
 O                 -0.14316900    2.29621500    0.00000000
 N                 -1.14359300    0.22683300    0.00000000
 C                  0.00000000    1.07193900    0.00000000
 C                  1.24673700    0.32921600    0.00000000
 C                 -1.12247500   -1.13706100    0.00000000
 C                  1.27114600   -1.04160500    0.00000000
 C                  0.07037600   -1.80818500    0.00000000
 H                 -2.03100900    0.72647800    0.00000000
 H                  2.16007500    0.92218000    0.00000000
 H                 -2.09156300   -1.63499800    0.00000000
 H                  2.23124600   -1.56181900    0.00000000
 H                  0.08704600   -2.89521700    0.00000000

TST_GAS_BP86

0 1
 O                  0.20490501    2.59505305    0.00000000
 N                 -0.97851999    0.62447405    0.00000000
 C                  0.20761001    1.23493805    0.00000000
 C                  1.44037001    0.56042905    0.00000000
 C                 -0.98490999   -0.72124595    0.00000000
 C                  1.40827901   -0.82885295    0.00000000
 C                  0.17400301   -1.49367095    0.00000000
 H                 -1.15341001    2.19476495    0.00000000
 H                  2.37276401    1.12302905    0.00000000
 H                 -1.97182999   -1.19087095    0.00000000
 H                  2.34126401   -1.39423895    0.00000000
 H                  0.11478101   -2.58133595    0.00000000

@pc-2.gbs

