%nprocshared=64
%mem=128GB
%chk=TST_GAS_CAM-B3LYP.chk
#p opt=(calcfc,qst3,MaxCycle=200) freq CAM-B3LYP/gen

HY_CAM-B3LYP_PC2_OPT_FREQ

0 1
 O                  0.00441300    2.24330900    0.00000000
 N                 -1.16917000    0.29369300    0.00000000
 C                  0.00000000    0.89752600    0.00000000
 C                  1.21911700    0.22545300    0.00000000
 C                 -1.18377800   -1.03825100    0.00000000
 C                  1.18490700   -1.14880800    0.00000000
 C                 -0.04012900   -1.80555700    0.00000000
 H                 -0.91709000    2.52728100    0.00000000
 H                  2.14211800    0.78400700    0.00000000
 H                 -2.16237700   -1.50117000    0.00000000
 H                  2.10788900   -1.71173800    0.00000000
 H                 -0.10235400   -2.88288400    0.00000000

PY_CAM-B3LYP_PC2_OPT_FREQ

0 1
 O                 -0.12357000    2.26736600    0.00000000
 N                 -1.13137000    0.23920600    0.00000000
 C                  0.00000000    1.05690700    0.00000000
 C                  1.24107800    0.31569800    0.00000000
 C                 -1.11651800   -1.11737100    0.00000000
 C                  1.25488500   -1.03495400    0.00000000
 C                  0.05119900   -1.79108200    0.00000000
 H                 -2.00637600    0.73974000    0.00000000
 H                  2.14778100    0.90015400    0.00000000
 H                 -2.08055100   -1.60306100    0.00000000
 H                  2.20226800   -1.55711000    0.00000000
 H                  0.06116900   -2.86828200    0.00000000

TST_GAS_CAM-B3LYP

0 1
 O                  0.20048195    2.60835773    0.00000000
 N                 -0.97310105    0.65874173    0.00000000
 C                  0.19606895    1.26257473    0.00000000
 C                  1.41518595    0.59050173    0.00000000
 C                 -0.98770905   -0.67320227    0.00000000
 C                  1.38097595   -0.78375927    0.00000000
 C                  0.15593995   -1.44050827    0.00000000
 H                 -1.11315895    2.16223227    0.00000000
 H                  2.33818695    1.14905573    0.00000000
 H                 -1.96630805   -1.13612127    0.00000000
 H                  2.30395795   -1.34668927    0.00000000
 H                  0.09371495   -2.51783527    0.00000000

@pc-2.gbs

