%nprocshared=64
%mem=128GB
%chk=TST_H2O_BP86.chk
#p opt=(calcfc,qst3,maxcycle=200) freq gen geom=connectivity bp86

HY_H2O_BP86_PC2_OPT_FREQ

0 1
 O                  1.25878500    1.43098400   -0.00495100
 N                  0.31286300   -0.68326800   -0.00695300
 C                  0.16212500    0.65456100   -0.00083500
 C                 -1.10500400    1.27266900    0.00889900
 C                 -0.79494400   -1.45086500   -0.00640100
 C                 -2.23077700    0.46302400    0.01049300
 C                 -2.08411500   -0.93289900    0.00238200
 H                  2.06870100    0.83776100   -0.01746000
 H                 -1.16832000    2.35974300    0.01300400
 H                 -0.62296700   -2.52979300   -0.01465200
 H                 -3.22445200    0.91341700    0.01683100
 H                 -2.94699500   -1.59714500    0.00175300
 O                  3.04139300   -0.60290300   -0.08689600
 H                  3.49396000   -0.86429100    0.73043700
 H                  2.12489800   -1.00041100   -0.03370000

 1 3 1.5 8 1.0
 2 3 1.5 5 1.5
 3 4 1.5
 4 6 1.5 9 1.0
 5 7 1.5 10 1.0
 6 7 1.5 11 1.0
 7 12 1.0
 8
 9
 10
 11
 12
 13 14 1.0 15 1.0
 14
 15

PY_H2O_BP86_PC2_OPT_FREQ

0 1
 O                  1.29072300    1.39774900    0.00189300
 N                  0.26322700   -0.66298700    0.00819100
 C                  0.22529300    0.74390000    0.00466600
 C                 -1.10673200    1.29752800    0.00279700
 C                 -0.83331300   -1.46630600    0.00465500
 C                 -2.21596400    0.48688500   -0.00036400
 C                 -2.09520400   -0.92843300   -0.00023700
 H                  2.64141700    0.27311000   -0.04882700
 H                 -1.18475500    2.38350600    0.00118900
 H                 -0.63959400   -2.53850700    0.00408700
 H                 -3.21048600    0.93733300   -0.00394700
 H                 -2.96795300   -1.57677900   -0.00459400
 O                  3.05202300   -0.63747400   -0.09105600
 H                  3.71021500   -0.66448500    0.61980400
 H                  1.22212700   -1.05691400    0.01915100

 1 3 2.0
 2 3 1.0 5 1.5 15 1.0
 3 4 1.5
 4 6 2.0 9 1.0
 5 7 2.0 10 1.0
 6 7 1.5 11 1.0
 7 12 1.0
 8 13 1.0
 9
 10
 11
 12
 13 14 1.0
 14
 15

TST_H2O_BP86

0 1
 O                  1.32312290    1.40232286   -0.00381699
 N                  0.37720090   -0.71192914   -0.00581899
 C                  0.22646290    0.62589986    0.00029901
 C                 -1.04066610    1.24400786    0.01003301
 C                 -0.73060610   -1.47952614   -0.00526699
 C                 -2.16643910    0.43436286    0.01162701
 C                 -2.01977710   -0.96156014    0.00351601
 H                  2.23547251    0.62006071   -0.03453541
 H                 -1.10398210    2.33108186    0.01413801
 H                 -0.55862910   -2.55845414   -0.01351799
 H                 -3.16011410    0.88475586    0.01796501
 H                 -2.88265710   -1.62580614    0.00288701
 O                  2.64062888   -0.42024586   -0.07418927
 H                  3.09319588   -0.68163386    0.74314373
 H                  1.64977226   -0.89452800   -0.01709627

 1 3 1.5
 2 3 1.5 5 1.5
 3 4 1.5
 4 6 1.5 9 1.0
 5 7 1.5 10 1.0
 6 7 1.5 11 1.0
 7 12 1.0
 8 13 0.5
 9
 10
 11
 12
 13 14 1.0 15 0.5
 14
 15

@pc-2.gbs



