%nprocshared=64
%mem=128GB
%chk=TST_H2O_BLYP.chk
#p opt=(calcfc,qst3,maxcycle=200,cartesian) freq gen geom=connectivity blyp

HY_H2O_BLYP_PC2_OPT_FREQ

0 1
 O                  1.23694300    1.45540200   -0.00152500
 N                  0.30962700   -0.67774000   -0.00342300
 C                  0.14347800    0.65901600    0.00094900
 C                 -1.13017600    1.26725900    0.00749500
 C                 -0.79414000   -1.45765900   -0.00434900
 C                 -2.25045500    0.44638800    0.00771600
 C                 -2.08953200   -0.95006800    0.00132700
 H                  2.05449900    0.88632700   -0.01386100
 H                 -1.20392200    2.35103600    0.01036400
 H                 -0.61344800   -2.53231500   -0.01089200
 H                 -3.24600900    0.88595700    0.01165500
 H                 -2.94451500   -1.62047100   -0.00024400
 O                  3.10346300   -0.59633100   -0.08939600
 H                  3.58418300   -0.87559200    0.70624300
 H                  2.20352300   -1.01295700   -0.03076900

 1 3 1.0 8 1.0
 2 3 1.5 5 1.5
 3 4 1.5
 4 6 1.5 9 1.0
 5 7 1.5 10 1.0
 6 7 1.5 11 1.0
 7 12 1.0
 8
 9
 10
 11
 12
 13 14 1.0 15 1.0
 14
 15

PY_H2O_BLYP_PC2_OPT_FREQ

0 1
 O                  1.27526300    1.40782000    0.00569100
 N                  0.25449300   -0.66537800    0.01215600
 C                  0.21286100    0.74890200    0.00662500
 C                 -1.12634100    1.29664300    0.00078500
 C                 -0.84534100   -1.47382400    0.00711600
 C                 -2.23344400    0.48178200   -0.00384500
 C                 -2.10804600   -0.93683600   -0.00149500
 H                  2.71413600    0.27533500   -0.04756800
 H                 -1.20854400    2.37964300   -0.00236100
 H                 -0.65017600   -2.54289700    0.00867600
 H                 -3.22734300    0.92701900   -0.01033800
 H                 -2.97828400   -1.58435200   -0.00683200
 O                  3.11788800   -0.63124100   -0.09097100
 H                  3.82186100   -0.64478800    0.57571000
 H                  1.20356400   -1.06494200    0.02475000

 1 3 2.0
 2 3 1.0 5 1.5 15 1.0
 3 4 1.5
 4 6 2.0 9 1.0
 5 7 2.0 10 1.0
 6 7 1.5 11 1.0
 7 12 1.0
 8 13 1.0
 9
 10
 11
 12
 13 14 1.0
 14
 15

TST_H2O_BLYP

0 1
 O                  1.31288457    1.45127709   -0.00019958
 N                  0.38556857   -0.68186491   -0.00209758
 C                  0.21941957    0.65489109    0.00227442
 C                 -1.05423443    1.26313409    0.00882042
 C                 -0.71819843   -1.46178391   -0.00302358
 C                 -2.17451343    0.44226309    0.00904142
 C                 -2.01359043   -0.95419291    0.00265242
 H                  2.25493009    0.61627937   -0.03446215
 H                 -1.12798043    2.34691109    0.01168942
 H                 -0.53750643   -2.53643991   -0.00956658
 H                 -3.17006743    0.88183209    0.01298042
 H                 -2.86857343   -1.62459591    0.00108142
 O                  2.65647528   -0.43302462   -0.07582083
 H                  3.13719528   -0.71228562    0.71981817
 H                  1.63010646   -0.87625372   -0.00862688

 1 3 1.0
 2 3 1.5 5 1.5
 3 4 1.5
 4 6 1.5 9 1.0
 5 7 1.5 10 1.0
 6 7 1.5 11 1.0
 7 12 1.0
 8 13 0.5
 9
 10
 11
 12
 13 14 1.0 15 0.5
 14
 15

@pc-2.gbs



