%nprocshared=64
%mem=128GB
%chk=PY_H2O_TPSSTPSS_PC2_OPT_FREQ.chk
#p opt freq TPSSTPSS/gen

PY_H2O_TPSSTPSS_PC2_OPT_FREQ

0 1
 O                  1.26147600    1.38785200    0.00540800
 N                  0.24942500   -0.65888000    0.01158100
 C                  0.21020900    0.73599700    0.00592000
 C                 -1.11959200    1.28762500    0.00047400
 C                 -0.84357500   -1.46082200    0.00670200
 C                 -2.21816000    0.48190500   -0.00352100
 C                 -2.09558600   -0.93059300   -0.00106100
 H                  2.70140400    0.27313800   -0.04162300
 H                 -1.19682600    2.36437000   -0.00253900
 H                 -0.64999100   -2.52342600    0.00861600
 H                 -3.20534400    0.92604700   -0.00928200
 H                 -2.96087400   -1.57361800   -0.00584300
 O                  3.10666900   -0.61978700   -0.08597800
 H                  3.83343900   -0.62425100    0.54074000
 H                  1.18727900   -1.05929100    0.02234000

@pc-2.gbs

