%nprocshared=64
%mem=128GB
%chk=TST_H2O_CAM-B3LYP.chk
#p opt=(calcfc,qst3,maxcycle=300,cartesian) freq cam-b3lyp/gen int=acc2e=12 scf=(novaracc,noincfock)

HY_H2O_CAM-B3LYP_PC2_OPT_FREQ

0 1
 O                  1.22285800    1.42975300    0.00066200
 N                  0.30247300   -0.66821300   -0.00143400
 C                  0.14438900    0.64737200    0.00197800
 C                 -1.11435900    1.25342000    0.00680700
 C                 -0.78768400   -1.43915500   -0.00336200
 C                 -2.22234900    0.44515200    0.00621700
 C                 -2.06660800   -0.93829800    0.00059500
 H                  2.03532300    0.87981800   -0.01145000
 H                 -1.18086700    2.33025300    0.00910800
 H                 -0.61029100   -2.50694300   -0.00922500
 H                 -3.21067500    0.88362500    0.00893200
 H                 -2.91643000   -1.60310800   -0.00161900
 O                  3.06179500   -0.58094100   -0.08575800
 H                  3.58684800   -0.90323500    0.64864300
 H                  2.18121800   -1.00436100   -0.02698500

PY_H2O_CAM-B3LYP_PC2_OPT_FREQ

0 1
 O                  1.26148700    1.38009200    0.00888600
 N                  0.25538600   -0.65509800    0.01489200
 C                  0.21599400    0.72843800    0.00786500
 C                 -1.10958500    1.28398400   -0.00124900
 C                 -0.83759700   -1.45305800    0.00868700
 C                 -2.20208300    0.48496900   -0.00656200
 C                 -2.08167600   -0.92659900   -0.00220600
 H                  2.67176800    0.27952000   -0.03972400
 H                 -1.18156700    2.36040300   -0.00568000
 H                 -0.64412000   -2.51514100    0.01209300
 H                 -3.18805500    0.93003500   -0.01492400
 H                 -2.94769500   -1.56756700   -0.00785700
 O                  3.05810400   -0.62102900   -0.08184000
 H                  3.84160400   -0.62511200    0.46863500
 H                  1.19332200   -1.05535700    0.02763300

TST_H2O_CAM-B3LYP

0 1
 O                  1.28840930    1.41360010    0.00333480
 N                  0.36802430   -0.68436590    0.00123880
 C                  0.20994030    0.63121910    0.00465080
 C                 -1.04880770    1.23726710    0.00947980
 C                 -0.72213270   -1.45530790   -0.00068920
 C                 -2.15679770    0.42899910    0.00888980
 C                 -2.00105670   -0.95445090    0.00326780
 H                  2.26504261    0.63223060   -0.03519586
 H                 -1.11531570    2.31410010    0.01178080
 H                 -0.54473970   -2.52309590   -0.00655220
 H                 -3.14512370    0.86747210    0.01160480
 H                 -2.85087870   -1.61926090    0.00105380
 O                  2.70894588   -0.35146865   -0.07625295
 H                  3.23399888   -0.67376265    0.65814805
 H                  1.65641365   -0.85757225   -0.00600301

@pc-2.gbs

