%nprocshared=64
%mem=128GB
%chk=TST_GAS_BLYP.chk
#p opt=(calcfc,qst3,MaxCycle=200) freq BLYP/gen 

HY_BLYP_PC2_OPT_FREQ

0 1
 O                  0.00259200    2.27393300    0.00000000
 N                 -1.18798700    0.29563000    0.00000000
 C                  0.00000000    0.90668000    0.00000000
 C                  1.23359300    0.22942000    0.00000000
 C                 -1.19656400   -1.05360300    0.00000000
 C                  1.20094300   -1.16178900    0.00000000
 C                 -0.03591800   -1.82668500    0.00000000
 H                 -0.93638700    2.54522500    0.00000000
 H                  2.16448000    0.78941700    0.00000000
 H                 -2.18117200   -1.52126400    0.00000000
 H                  2.13111500   -1.72657100    0.00000000
 H                 -0.09518200   -2.91181700    0.00000000

PY_BLYP_PC2_OPT_FREQ

0 1
 O                 -0.14146400    2.30114300    0.00000000
 N                 -1.14913200    0.22665700    0.00000000
 C                  0.00000000    1.07469300    0.00000000
 C                  1.24963200    0.32993400    0.00000000
 C                 -1.12462200   -1.14240800    0.00000000
 C                  1.27417900   -1.04193400    0.00000000
 C                  0.07079700   -1.81073200    0.00000000
 H                 -2.03702900    0.72313200    0.00000000
 H                  2.16072000    0.92140000    0.00000000
 H                 -2.09020600   -1.64101900    0.00000000
 H                  2.23160900   -1.56134300    0.00000000
 H                  0.09062800   -2.89522700    0.00000000

TST_GAS_BLYP

0 1
 O                  0.18479472    2.63602965    0.00000000
 N                 -1.00578428    0.65772665    0.00000000
 C                  0.18220272    1.26877665    0.00000000
 C                  1.41579572    0.59151665    0.00000000
 C                 -1.01436128   -0.69150635    0.00000000
 C                  1.38314572   -0.79969235    0.00000000
 C                  0.14628472   -1.46458835    0.00000000
 H                 -1.11858972    2.18312835    0.00000000
 H                  2.34668272    1.15151365    0.00000000
 H                 -1.99896928   -1.15916735    0.00000000
 H                  2.31331772   -1.36447435    0.00000000
 H                  0.08702072   -2.54972035    0.00000000

@pc-2.gbs

