%nprocshared=64
%mem=128GB
%chk=TST_GAS_M06L.chk
#p opt=(calcfc,qst3,MaxCycle=200) freq M06L/gen

HY_M06L_PC2_OPT_FREQ

0 1
 O                  0.00132700    2.24509900    0.00000000
 N                 -1.17723900    0.29520700    0.00000000
 C                  0.00000000    0.89866400    0.00000000
 C                  1.22250300    0.22787200    0.00000000
 C                 -1.18314500   -1.03911200    0.00000000
 C                  1.18900400   -1.14927600    0.00000000
 C                 -0.03608000   -1.80804300    0.00000000
 H                 -0.92490800    2.50703100    0.00000000
 H                  2.14546200    0.78564300    0.00000000
 H                 -2.16118600   -1.50495500    0.00000000
 H                  2.11228600   -1.71078900    0.00000000
 H                 -0.09528500   -2.88479900    0.00000000

PY_M06L_PC2_OPT_FREQ

0 1
 O                 -0.13972400    2.27531900    0.00000000
 N                 -1.13425100    0.22732700    0.00000000
 C                  0.00000000    1.06538200    0.00000000
 C                  1.23746500    0.32528000    0.00000000
 C                 -1.11337400   -1.12746300    0.00000000
 C                  1.26017300   -1.03244500    0.00000000
 C                  0.06699800   -1.79444900    0.00000000
 H                 -2.01223300    0.71713100    0.00000000
 H                  2.14282300    0.91064000    0.00000000
 H                 -2.07420100   -1.61968100    0.00000000
 H                  2.21050800   -1.54929700    0.00000000
 H                  0.08307900   -2.87046400    0.00000000

TST_GAS_M06L

0 1
 O                  0.21687545    2.58466157    0.00000000
 N                 -0.96169055    0.63476957    0.00000000
 C                  0.21554845    1.23822657    0.00000000
 C                  1.43805145    0.56743457    0.00000000
 C                 -0.96759655   -0.69954943    0.00000000
 C                  1.40455245   -0.80971343    0.00000000
 C                  0.17946845   -1.46848043    0.00000000
 H                 -1.14045645    2.16746843    0.00000000
 H                  2.36101045    1.12520557    0.00000000
 H                 -1.94563755   -1.16539243    0.00000000
 H                  2.32783445   -1.37122643    0.00000000
 H                  0.12026345   -2.54523643    0.00000000

@pc-2.gbs

