%nprocshared=64
%mem=128GB
%chk=PY_pc-3_B3LYP_OPT_FREQ.chk
# opt freq b3lyp/gen

PY_pc-3_B3LYP_OPT_FREQ

0 1 
 O    2.282000   -0.023000    0.000000
 N    0.285000   -1.189000    0.000000
 C    1.054000   -0.034000    0.000000
 C    0.288000    1.248000    0.000000
 C   -1.088000   -1.185000    0.000000
 C   -1.052000    1.217000    0.000000
 C   -1.770000   -0.034000    0.000000
 H    0.753000   -2.090000    0.000000
 H    0.841000    2.179000    0.000000
 H   -1.569000   -2.154000    0.000000
 H   -1.628000    2.135000    0.000000
 H   -2.853000   -0.016000    0.000000

@pc-3.gbs

