%nprocshared=6
%mem=10GB
%chk=TST_GAS_TPSSh.chk
#p opt=(calcfc,qst3,cartesian) freq TPSSh/gen int=acc2e=12 scf=(novaracc,noincfock) 

HY_TPSSh_PC2_OPT_FREQ

0 1
 O                 -0.00310300    2.25429800    0.00000000
 N                 -1.17912800    0.29427800    0.00000000
 C                  0.00000000    0.90032900    0.00000000
 C                  1.22672700    0.23033700    0.00000000
 C                 -1.18652300   -1.04514000    0.00000000
 C                  1.19444800   -1.15219000    0.00000000
 C                 -0.03438400   -1.81413000    0.00000000
 H                 -0.93560000    2.51804200    0.00000000
 H                  2.15189100    0.78933700    0.00000000
 H                 -2.16655200   -1.50930500    0.00000000
 H                  2.12058100   -1.71371300    0.00000000
 H                 -0.09321100   -2.89392700    0.00000000

PY_TPSSh_PC2_OPT_FREQ

0 1
 O                 -0.13962000    2.28264600    0.00000000
 N                 -1.13596200    0.22964800    0.00000000
 C                  0.00000000    1.06546000    0.00000000
 C                  1.24207200    0.32570200    0.00000000
 C                 -1.11753100   -1.12949600    0.00000000
 C                  1.26374200   -1.03682200    0.00000000
 C                  0.06526500   -1.80026900    0.00000000
 H                 -2.01740200    0.72450700    0.00000000
 H                  2.14987900    0.91237700    0.00000000
 H                 -2.08177800   -1.61885200    0.00000000
 H                  2.21603100   -1.55469500    0.00000000
 H                  0.08068400   -2.87949300    0.00000000

TST_GAS_TPSSh

0 1
 O                  0.19537902    2.62035853    0.00000000
 N                 -0.98064598    0.66033853    0.00000000
 C                  0.17766070    1.28022690    0.00000000
 C                  1.42520902    0.59639753    0.00000000
 C                 -0.98804098   -0.67907947    0.00000000
 C                  1.39293002   -0.78612947    0.00000000
 C                  0.16409802   -1.44806947    0.00000000
 H                 -1.11326070    2.13814410    0.00000000
 H                  2.35037302    1.15539753    0.00000000
 H                 -1.96806998   -1.14324447    0.00000000
 H                  2.31906302   -1.34765247    0.00000000
 H                  0.10527102   -2.52786647    0.00000000

@pc-2.gbs

