%nprocshared=64
%mem=128GB
%chk=TST_H2O_LC-wPBE.chk
#p opt=(calcfc,qst3,maxcycle=200) freq gen geom=connectivity lc-wpbe

HY_H2O_LC-wPBE_PC2_OPT_FREQ

0 1
 O                  1.21586100    1.43153300   -0.00255900
 N                  0.30391400   -0.66346300   -0.00511300
 C                  0.14053200    0.64776000   -0.00006900
 C                 -1.11906100    1.25046000    0.00840200
 C                 -0.78349800   -1.43623900   -0.00561600
 C                 -2.22098600    0.43996700    0.00928500
 C                 -2.06130000   -0.94226600    0.00164000
 H                  2.02483300    0.87676800   -0.01934400
 H                 -1.18835400    2.32877300    0.01216400
 H                 -0.60193000   -2.50545200   -0.01301300
 H                 -3.21264900    0.87566200    0.01475000
 H                 -2.91024300   -1.61099200    0.00046600
 O                  3.06879000   -0.58152700   -0.08317800
 H                  3.56475700   -0.88086200    0.67948600
 H                  2.18485700   -0.99780200   -0.03467200

 1 3 1.5 8 1.0
 2 3 2.0 5 1.5
 3 4 1.5
 4 6 2.0 9 1.0
 5 7 2.0 10 1.0
 6 7 1.5 11 1.0
 7 12 1.0
 8
 9
 10
 11
 12
 13 14 1.0 15 1.0
 14
 15

PY_H2O_LC-wPBE_PC2_OPT_FREQ

0 1
 O                  1.25363700    1.38091500    0.00702300
 N                  0.25413500   -0.65099700    0.01312800
 C                  0.21208900    0.72634600    0.00681300
 C                 -1.11623800    1.28100200   -0.00036300
 C                 -0.83772000   -1.45093100    0.00755500
 C                 -2.20271600    0.48228800   -0.00482300
 C                 -2.07964900   -0.93138600   -0.00147000
 H                  2.67502300    0.27522600   -0.04765000
 H                 -1.18960000    2.35906700   -0.00406100
 H                 -0.64017500   -2.51435700    0.01000800
 H                 -3.19124600    0.92618400   -0.01169300
 H                 -2.94542800   -1.57566900   -0.00655900
 O                  3.07590400   -0.61783600   -0.08320300
 H                  3.82860000   -0.61295800    0.50730700
 H                  1.19296500   -1.04906400    0.02392000

 1 3 2.0
 2 3 1.5 5 1.5 15 1.0
 3 4 1.5
 4 6 2.0 9 1.0
 5 7 2.0 10 1.0
 6 7 1.5 11 1.0
 7 12 1.0
 8 13 1.0
 9
 10
 11
 12
 13 14 1.0
 14
 15

TST_H2O_LC-wPBE

0 1
 O                  1.27867288    1.41457570   -0.00510912
 N                  0.36672588   -0.68042030   -0.00766312
 C                  0.20334388    0.63080270   -0.00261912
 C                 -1.05624912    1.23350270    0.00585188
 C                 -0.72068612   -1.45319630   -0.00816612
 C                 -2.15817412    0.42300970    0.00673488
 C                 -1.99848812   -0.95922330   -0.00091012
 H                  2.23148278    0.61214970   -0.03310203
 H                 -1.12554212    2.31181570    0.00961388
 H                 -0.53911812   -2.52240930   -0.01556312
 H                 -3.14983712    0.85870470    0.01219988
 H                 -2.84743112   -1.62794930   -0.00208412
 O                  2.62706402   -0.41367079   -0.06785575
 H                  3.12303102   -0.71300579    0.69480825
 H                  1.63312056   -0.88175356   -0.01331290

 1 3 1.5
 2 3 2.0 5 1.5
 3 4 1.5
 4 6 2.0 9 1.0
 5 7 2.0 10 1.0
 6 7 1.5 11 1.0
 7 12 1.0
 8 13 0.5
 9
 10
 11
 12
 13 14 1.0 15 0.5
 14
 15

@pc-2.gbs



