%nprocshared=64
%mem=128GB
%chk=TST_H2O_M06.chk
#p opt=(calcfc,qst3,MaxCycle=200) freq M06/gen 

HY_H2O_M06_PC2_OPT_FREQ

0 1
 O                  1.20179000    1.44192600   -0.00335900
 N                  0.30288400   -0.66518900   -0.00619200
 C                  0.13512600    0.64977200   -0.00056800
 C                 -1.12788300    1.24833900    0.00863300
 C                 -0.78331100   -1.43939600   -0.00623900
 C                 -2.23115200    0.43320700    0.00997200
 C                 -2.06690400   -0.94834800    0.00193200
 H                  2.01492900    0.89859500   -0.01846500
 H                 -1.20081300    2.32597000    0.01275400
 H                 -0.60372200   -2.50908500   -0.01369400
 H                 -3.22293300    0.86643800    0.01631500
 H                 -2.91284400   -1.61959100    0.00126400
 O                  3.10028100   -0.57664900   -0.08193800
 H                  3.60032500   -0.87314200    0.67619100
 H                  2.23305600   -1.01653000   -0.03103300

PY_H2O_M06_PC2_OPT_FREQ

0 1
 O                  1.24612400    1.39710000    0.00739100
 N                  0.25513600   -0.65006700    0.01389200
 C                  0.20996200    0.74130400    0.00715300
 C                 -1.12192000    1.27946500   -0.00030900
 C                 -0.83041000   -1.45505100    0.00780400
 C                 -2.20920700    0.47083500   -0.00525900
 C                 -2.07995400   -0.93722400   -0.00206000
 H                  2.71480400    0.27882400   -0.04666800
 H                 -1.20535400    2.35634300   -0.00389100
 H                 -0.63265000   -2.51785600    0.01030200
 H                 -3.19924600    0.90983700   -0.01255000
 H                 -2.94130800   -1.58583000   -0.00764300
 O                  3.08354400   -0.62312100   -0.08399800
 H                  3.83334600   -0.63577600    0.50637800
 H                  1.19628000   -1.04287800    0.02570400

TST_H2O_M06

0 1
 O                  1.38896881    1.41935171   -0.00711548
 N                  0.49006281   -0.68776329   -0.00994848
 C                  0.32230481    0.62719771   -0.00432448
 C                 -0.94070419    1.22576471    0.00487652
 C                 -0.59613219   -1.46197029   -0.00999548
 C                 -2.04397319    0.41063271    0.00621552
 C                 -1.87972519   -0.97092229   -0.00182448
 H                  2.05357116    0.61422643   -0.02791487
 H                 -1.01363419    2.30339571    0.00899752
 H                 -0.41654319   -2.53165929   -0.01745048
 H                 -3.03575419    0.84386371    0.01255852
 H                 -2.72566519   -1.64216529   -0.00249248
 O                  2.68728121   -0.24713186   -0.06497518
 H                  3.18732521   -0.54362486    0.69315382
 H                  1.82005621   -0.68701286   -0.01407018

@pc-2.gbs

