%nprocshared=64
%mem=128GB
%chk=TST_H2O_M062X.chk
#p opt=(calcfc,qst3,maxcycle=300,cartesian) freq M062X/gen int=acc2e=12 scf=(novaracc,noincfock)

HY_H2O_M062X_PC2_OPT_FREQ

0 1
 O                  1.21267300    1.43730400   -0.00108100
 N                  0.30217700   -0.66943600   -0.00423000
 C                  0.13749300    0.64702500    0.00063400
 C                 -1.12471000    1.25304700    0.00766800
 C                 -0.78944100   -1.44259500   -0.00497300
 C                 -2.23313900    0.44066400    0.00816400
 C                 -2.07349900   -0.94478500    0.00140800
 H                  2.02448000    0.89223200   -0.01448100
 H                 -1.19079900    2.33017000    0.01091400
 H                 -0.60895800   -2.51027400   -0.01169400
 H                 -3.22303000    0.87690400    0.01290900
 H                 -2.92123800   -1.61244800    0.00026500
 O                  3.09354500   -0.57372400   -0.08194600
 H                  3.62509200   -0.89937100    0.64534400
 H                  2.22924700   -1.01993400   -0.02684000

PY_H2O_M062X_PC2_OPT_FREQ

0 1
 O                  1.25604500    1.38868000    0.01729500
 N                  0.25511700   -0.65352100    0.02378000
 C                  0.21491100    0.73349300    0.01261500
 C                 -1.11774700    1.28483400   -0.00531800
 C                 -0.83665800   -1.45609300    0.01379100
 C                 -2.20938000    0.48089300   -0.01448800
 C                 -2.08575300   -0.93322400   -0.00534100
 H                  2.70125300    0.27959100   -0.03750800
 H                 -1.19152500    2.36147300   -0.01323800
 H                 -0.63810100   -2.51761700    0.02114900
 H                 -3.19709700    0.92341100   -0.03012800
 H                 -2.94890500   -1.57803900   -0.01360400
 O                  3.06831200   -0.62421900   -0.08152400
 H                  3.91014800   -0.61339000    0.37284900
 H                  1.19131200   -1.05588400    0.04029700

TST_H2O_M062X

0 1
 O                  1.28494276    1.39278942   -0.00123879
 N                  0.37444676   -0.71395058   -0.00438779
 C                  0.20976276    0.60251042    0.00047621
 C                 -1.05244024    1.20853242    0.00751021
 C                 -0.71717124   -1.48710958   -0.00513079
 C                 -2.16086924    0.39614942    0.00800621
 C                 -2.00122924   -0.98929958    0.00125021
 H                  2.22012894    0.66628020   -0.03126408
 H                 -1.11852924    2.28565542    0.01075621
 H                 -0.53668824   -2.55478858   -0.01185179
 H                 -3.15076024    0.83238942    0.01275121
 H                 -2.84896824   -1.65696258    0.00010721
 O                  2.72664425   -0.31550934   -0.06986089
 H                  3.25819125   -0.64115634    0.65742911
 H                  1.75965346   -0.81473641   -0.00820740

@pc-2.gbs

