%nprocshared=64
%mem=128GB
%chk=TST_GAS_BHandHLYP.chk
#p opt=(calcfc,qst3,MaxCycle=200) freq BHandHLYP/gen 

HY_BHandHLYP_PC2_OPT_FREQ

0 1
 O                  0.00862700    2.23255200    0.00000000
 N                 -1.16353800    0.29494500    0.00000000
 C                  0.00000000    0.89487600    0.00000000
 C                  1.21496000    0.22305500    0.00000000
 C                 -1.18126600   -1.03097700    0.00000000
 C                  1.17853100   -1.14694200    0.00000000
 C                 -0.04404900   -1.80006200    0.00000000
 H                 -0.89839200    2.52556600    0.00000000
 H                  2.13290800    0.77588000    0.00000000
 H                 -2.15407900   -1.48855300    0.00000000
 H                  2.09446800   -1.70759100    0.00000000
 H                 -0.10820700   -2.87003200    0.00000000

PY_BHandHLYP_PC2_OPT_FREQ

0 1
 O                 -0.11720400    2.25500200    0.00000000
 N                 -1.12599900    0.24295400    0.00000000
 C                  0.00000000    1.05265600    0.00000000
 C                  1.23829100    0.31231700    0.00000000
 C                 -1.11476000   -1.10882500    0.00000000
 C                  1.24896900   -1.03319000    0.00000000
 C                  0.04528500   -1.78495800    0.00000000
 H                 -1.99405200    0.73819800    0.00000000
 H                  2.13992200    0.89133800    0.00000000
 H                 -2.07380200   -1.58839100    0.00000000
 H                  2.18849400   -1.55485700    0.00000000
 H                  0.05234700   -2.85498300    0.00000000

TST_GAS_BHandHLYP

0 1
 O                  0.26268297    2.57046987    0.00000000
 N                 -0.90948203    0.63286287    0.00000000
 C                  0.25405597    1.23279387    0.00000000
 C                  1.46901597    0.56097287    0.00000000
 C                 -0.92721003   -0.69305913    0.00000000
 C                  1.43258697   -0.80902413    0.00000000
 C                  0.21000697   -1.46214413    0.00000000
 H                 -1.15244797    2.18764813    0.00000000
 H                  2.38696397    1.11379787    0.00000000
 H                 -1.90002303   -1.15063513    0.00000000
 H                  2.34852397   -1.36967313    0.00000000
 H                  0.14584897   -2.53211413    0.00000000

@pc-2.gbs

