%nprocshared=64
%mem=128GB
%chk=TST_GAS_LC-wPBE.chk
#p opt=(calcfc,qst3,MaxCycle=200) freq LC-wPBE/gen 

HY_LC-wPBE_PC2_OPT_FREQ

0 1
 O                  0.00242800    2.23961800    0.00000000
 N                 -1.16777500    0.29424100    0.00000000
 C                  0.00000000    0.89563100    0.00000000
 C                  1.21831900    0.22498600    0.00000000
 C                 -1.18023400   -1.03593000    0.00000000
 C                  1.18341100   -1.14606100    0.00000000
 C                 -0.04000800   -1.80261100    0.00000000
 H                 -0.92119200    2.51424900    0.00000000
 H                  2.14243400    0.78506200    0.00000000
 H                 -2.16062600   -1.50024700    0.00000000
 H                  2.10817300   -1.71003900    0.00000000
 H                 -0.10272200   -2.88174100    0.00000000

PY_LC-wPBE_PC2_OPT_FREQ

0 1
 O                 -0.11549100    2.26463200    0.00000000
 N                 -1.12872400    0.24486700    0.00000000
 C                  0.00000000    1.05442700    0.00000000
 C                  1.24154600    0.30934600    0.00000000
 C                 -1.11685300   -1.11210200    0.00000000
 C                  1.25134400   -1.03610200    0.00000000
 C                  0.04300000   -1.78991500    0.00000000
 H                 -2.00259900    0.74700300    0.00000000
 H                  2.15082900    0.89339700    0.00000000
 H                 -2.08514800   -1.59431100    0.00000000
 H                  2.19889300   -1.56210900    0.00000000
 H                  0.04880000   -2.86902400    0.00000000

TST_GAS_LC-wPBE

0 1
 O                  0.22792380    2.57634696    0.00000000
 N                 -0.94227920    0.63096996    0.00000000
 C                  0.22549580    1.23235996    0.00000000
 C                  1.44381480    0.56171496    0.00000000
 C                 -0.95473820   -0.69920104    0.00000000
 C                  1.40890680   -0.80933204    0.00000000
 C                  0.18548780   -1.46588204    0.00000000
 H                 -1.14668780    2.17752004    0.00000000
 H                  2.36792980    1.12179096    0.00000000
 H                 -1.93513020   -1.16351804    0.00000000
 H                  2.33366880   -1.37331004    0.00000000
 H                  0.12277380   -2.54501204    0.00000000

@pc-2.gbs

