%nprocshared=64
%mem=128GB
%chk=4PY_wB97_PC2_OPT_FREQ.chk
#p opt freq wB97/gen

4PY_wB97_PC2_OPT_FREQ

0 1
 C                 -0.00018400   -1.04886600    1.19381800
 C                 -0.00018400    0.30654900    1.22856800
 C                  0.00022100    1.11151600    0.00000000
 C                 -0.00018400    0.30654900   -1.22856800
 C                 -0.00018400   -1.04886600   -1.19381800
 N                  0.00001800   -1.72967800    0.00000000
 H                 -0.00063000   -1.66692500    2.08522300
 H                 -0.00058700    0.82773800    2.17892500
 H                 -0.00058700    0.82773800   -2.17892500
 H                 -0.00063000   -1.66692500   -2.08522300
 O                  0.00059700    2.34524800    0.00000000
 H                  0.00063000   -2.73715800    0.00000000

@pc-2.gbs

