%nprocshared=64
%mem=128GB
%chk=TST_H2O_wB97.chk
#p opt=(calcfc,qst3,maxcycle=200) freq gen geom=connectivity wb97

HY_H2O_wB97_PC2_OPT_FREQ

0 1
 O                  1.21246500    1.44000500   -0.00125500
 N                  0.30351200   -0.67022300   -0.00368600
 C                  0.13562300    0.64624800    0.00079200
 C                 -1.12831600    1.25406900    0.00771400
 C                 -0.79168600   -1.44355400   -0.00480700
 C                 -2.23620200    0.44109100    0.00808600
 C                 -2.07553400   -0.94743000    0.00124000
 H                  2.02405300    0.89450700   -0.01753800
 H                 -1.19550500    2.33383200    0.01085100
 H                 -0.61047400   -2.51405900   -0.01152500
 H                 -3.22858600    0.87839900    0.01262600
 H                 -2.92467700   -1.61782500   -0.00021600
 O                  3.10365100   -0.57547300   -0.08343700
 H                  3.62137200   -0.88440300    0.66051100
 H                  2.23699400   -1.01768700   -0.02952100

 1 3 1.5 8 1.0
 2 3 1.5 5 1.5
 3 4 1.5
 4 6 2.0 9 1.0
 5 7 2.0 10 1.0
 6 7 1.5 11 1.0
 7 12 1.0
 8
 9
 10
 11
 12
 13 14 1.0 15 1.0
 14
 15

PY_H2O_wB97_PC2_OPT_FREQ

0 1
 O                  1.25492200    1.39222600    0.01055500
 N                  0.25807300   -0.65334800    0.01664800
 C                  0.21356900    0.73119600    0.00883000
 C                 -1.12299400    1.28609600   -0.00218000
 C                 -0.83894000   -1.45812700    0.00967900
 C                 -2.21303400    0.48269300   -0.00824200
 C                 -2.08660700   -0.93815600   -0.00280900
 H                  2.70502700    0.27875800   -0.03990100
 H                 -1.19683300    2.36547400   -0.00730900
 H                 -0.63845400   -2.52222500    0.01406500
 H                 -3.20336200    0.92566600   -0.01809000
 H                 -2.95171500   -1.58511600   -0.00897500
 O                  3.08154600   -0.62195000   -0.08088700
 H                  3.88112600   -0.61774800    0.44400800
 H                  1.19399400   -1.05578800    0.03065100

 1 3 2.0
 2 3 1.0 5 1.5 15 1.0
 3 4 1.5
 4 6 2.0 9 1.0
 5 7 2.0 10 1.0
 6 7 1.5 11 1.0
 7 12 1.0
 8 13 1.0
 9
 10
 11
 12
 13 14 1.0
 14
 15

TST_H2O_wB97

0 1
 O                  1.31981217    1.42287889   -0.00241052
 N                  0.41085917   -0.68734911   -0.00484152
 C                  0.24297017    0.62912189   -0.00036352
 C                 -1.02096883    1.23694289    0.00655848
 C                 -0.68433883   -1.46068011   -0.00596252
 C                 -2.12885483    0.42396489    0.00693048
 C                 -1.96818683   -0.96455611    0.00008448
 H                  2.22594167    0.62275937   -0.03299828
 H                 -1.08815783    2.31670589    0.00969548
 H                 -0.50312683   -2.53118511   -0.01268052
 H                 -3.12123883    0.86127289    0.01147048
 H                 -2.81732983   -1.63495111   -0.00137152
 O                  2.64763242   -0.39258385   -0.06842502
 H                  3.16535342   -0.70151385    0.67552298
 H                  1.65972178   -0.87270228   -0.00910499

 1 3 1.5
 2 3 1.5 5 1.5
 3 4 1.5
 4 6 2.0 9 1.0
 5 7 2.0 10 1.0
 6 7 1.5 11 1.0
 7 12 1.0
 8 13 0.5
 9
 10
 11
 12
 13 14 1.0 15 0.5
 14
 15

@pc-2.gbs



